Version 4
SHEET 1 880 680
WIRE -48 -48 -320 -48
WIRE 464 -32 288 -32
WIRE -48 -16 -48 -48
WIRE 64 -16 -48 -16
WIRE 384 -16 64 -16
WIRE 464 32 464 -32
WIRE -320 64 -320 -48
WIRE -48 64 -48 -16
WIRE 384 112 384 -16
WIRE 416 112 384 112
WIRE 464 160 464 128
WIRE 288 208 288 -32
WIRE 464 208 464 160
WIRE -320 240 -320 144
WIRE -208 240 -320 240
WIRE -48 240 -48 144
WIRE -48 240 -208 240
WIRE 64 256 64 -16
WIRE 416 288 368 288
WIRE 128 336 128 256
WIRE 368 336 368 288
WIRE 368 336 128 336
WIRE 288 432 288 288
WIRE 368 432 288 432
WIRE 464 432 464 304
WIRE 464 432 368 432
FLAG -208 240 0
FLAG 368 432 0
FLAG 464 160 Out
SYMBOL voltage -320 48 R0
WINDOW 123 0 0 Left 0
WINDOW 39 0 0 Left 0
SYMATTR InstName V1
SYMATTR Value PULSE(0 5 0 1n 1n 0.5m 1m 0)
SYMBOL res -64 48 R0
SYMATTR InstName R1
SYMATTR Value 1k
SYMBOL nmos 416 32 R0
SYMATTR InstName M1
SYMATTR Value BSP89
SYMBOL nmos 416 208 R0
SYMATTR InstName M2
SYMATTR Value BSP89
SYMBOL voltage 288 192 R0
WINDOW 3 24 44 Left 2
WINDOW 123 0 0 Left 0
WINDOW 39 24 72 Left 2
SYMATTR Value 12
SYMATTR SpiceLine Rser=1000
SYMATTR InstName V2
SYMBOL Digital\\inv 64 192 R0
SYMATTR InstName A1
TEXT -352 264 Left 2 !.tran 0.005
